&NAMDPARA
  BMIN       = 310
  BMAX       = 324

  NSAMPLE    = 100
  NTRAJ      = 10000
  NSW        = 1999
  NELM       = 10

  TEMP       = 300
  NAMDTIME   = 1000
  POTIM      = 1.0

  LSPACE     = .TRUE.
  NACBASIS   = 120
  NACELE     = 2
  
  ALGO       = "FSSH"
  ALGO_INT   = 0
  LHOLE      = .TRUE.
  LSHP       = .FALSE.
  LCPTXT     = .TRUE.

  DEBUGLEVEL = "I"
/
